3L9H
                    3D
 Schrodinger Suite 2021-1.
 39 41  0  0  1  0            999 V2000
   17.7103    1.3810   16.7258 P   0  0  0  0  0  0
   16.2918    1.9380   16.9415 O   0  0  0  0  0  0
   17.7048   -0.1381   16.4765 O   0  5  0  0  0  0
   18.4945    2.1622   15.6604 O   0  5  0  0  0  0
   20.1704    1.9553   18.6598 P   0  0  0  0  0  0
   21.0614    1.4768   17.5414 O   0  0  0  0  0  0
   20.2345    3.3559   19.2252 O   0  5  0  0  0  0
   18.5522    1.6400   18.2257 O   0  0  0  0  0  0
   20.3327    0.8377   19.9634 O   0  0  0  0  0  0
   19.5869    1.0879   21.1452 C   0  0  0  0  0  0
   20.4613    1.1653   22.4074 C   0  0  1  0  0  0
   21.0911   -0.0950   22.5958 O   0  0  0  0  0  0
   21.6078    2.1760   22.3912 C   0  0  1  0  0  0
   21.7761    2.7834   23.6633 O   0  0  0  0  0  0
   22.8150    1.3580   21.9342 C   0  0  1  0  0  0
   24.0771    1.7580   22.4399 O   0  0  0  0  0  0
   22.4830   -0.0283   22.4899 C   0  0  2  0  0  0
   22.9954   -1.1724   21.6426 N   0  0  0  0  0  0
   22.4947   -1.6440   20.4842 C   0  0  0  0  0  0
   23.2096   -2.5994   19.9459 N   0  0  0  0  0  0
   24.2457   -2.7439   20.7874 C   0  0  0  0  0  0
   25.3696   -3.6002   20.7533 C   0  0  0  0  0  0
   25.5873   -4.5319   19.7432 N   0  0  0  0  0  0
   26.2748   -3.5190   21.7663 N   0  0  0  0  0  0
   26.0465   -2.6305   22.7424 C   0  0  0  0  0  0
   25.0272   -1.7702   22.8844 N   0  0  0  0  0  0
   24.1457   -1.8743   21.8585 C   0  0  0  0  0  0
   18.9006    0.2596   21.2825 H   0  0  0  0  0  0
   18.9668    1.9826   21.0671 H   0  0  0  0  0  0
   19.7967    1.3439   23.2547 H   0  0  0  0  0  0
   21.4113    2.9719   21.6708 H   0  0  0  0  0  0
   22.6054    3.2689   23.6516 H   0  0  0  0  0  0
   22.8340    1.3030   20.8442 H   0  0  0  0  0  0
   24.3615    2.5656   21.9940 H   0  0  0  0  0  0
   22.8770   -0.1608   23.5002 H   0  0  0  0  0  0
   21.5746   -1.2447   20.0891 H   0  0  0  0  0  0
   26.3917   -5.1389   19.8129 H   0  0  0  0  0  0
   24.9075   -4.6313   19.0027 H   0  0  0  0  0  0
   26.7890   -2.6030   23.5264 H   0  0  0  0  0  0
  1  2  2  0  0  0
  1  3  1  0  0  0
  1  4  1  0  0  0
  1  8  1  0  0  0
  5  6  2  0  0  0
  5  7  1  0  0  0
  5  8  1  0  0  0
  5  9  1  0  0  0
  9 10  1  0  0  0
 10 11  1  0  0  0
 10 28  1  0  0  0
 10 29  1  0  0  0
 11 12  1  0  0  0
 11 13  1  0  0  0
 11 30  1  0  0  0
 12 17  1  0  0  0
 13 14  1  0  0  0
 13 15  1  0  0  0
 13 31  1  0  0  0
 14 32  1  0  0  0
 15 16  1  0  0  0
 15 17  1  0  0  0
 15 33  1  0  0  0
 16 34  1  0  0  0
 17 18  1  0  0  0
 17 35  1  0  0  0
 18 19  1  0  0  0
 18 27  1  0  0  0
 19 20  2  0  0  0
 19 36  1  0  0  0
 20 21  1  0  0  0
 21 22  1  0  0  0
 21 27  2  0  0  0
 22 23  1  0  0  0
 22 24  2  0  0  0
 23 37  1  0  0  0
 23 38  1  0  0  0
 24 25  1  0  0  0
 25 26  2  0  0  0
 25 39  1  0  0  0
 26 27  1  0  0  0
M  CHG  3   3  -1   4  -1   7  -1
M  END
$$$$
lig_CHEMBL1084677
                    3D
 Schrodinger Suite 2022-3.
 62 65  0  0  1  0            999 V2000
   34.2542    7.0437   16.2339 H   0  0  0  0  0  0
   33.2715    7.3883   15.9458 C   0  0  0  0  0  0
   32.1380    6.9883   16.6772 C   0  0  0  0  0  0
   32.2499    6.3285   17.5256 H   0  0  0  0  0  0
   30.8557    7.4292   16.2989 C   0  0  0  0  0  0
   29.9912    7.1088   16.8615 H   0  0  0  0  0  0
   30.7062    8.2894   15.1925 C   0  0  0  0  0  0
   29.3313    8.7880   14.7833 C   0  0  2  0  0  0
   28.6004    8.3418   15.4588 H   0  0  0  0  0  0
   29.0044    8.3026   13.4488 N   0  0  0  0  0  0
   29.1849    7.3206   13.2786 H   0  0  0  0  0  0
   27.9860    8.9333   12.7222 C   0  0  0  0  0  0
   27.5855    8.3637   11.4988 C   0  0  0  0  0  0
   28.0386    7.4499   11.1440 H   0  0  0  0  0  0
   26.5960    8.9881   10.7181 C   0  0  0  0  0  0
   26.3100    8.5553    9.7715 H   0  0  0  0  0  0
   25.9966   10.1902   11.1482 C   0  0  0  0  0  0
   24.9967   10.9078   10.2617 C   0  0  0  0  0  0
   24.3239   10.0297    9.5193 F   0  0  0  0  0  0
   24.1307   11.6216   10.9820 F   0  0  0  0  0  0
   25.6561   11.7367    9.4531 F   0  0  0  0  0  0
   26.3831   10.7503   12.3807 C   0  0  0  0  0  0
   25.9427   11.6792   12.7138 H   0  0  0  0  0  0
   27.3766   10.1330   13.1649 C   0  0  0  0  0  0
   27.7988   10.7860   14.4654 C   0  0  1  0  0  0
   27.8007   11.8677   14.3097 H   0  0  0  0  0  0
   26.8580   10.4746   15.4889 O   0  0  0  0  0  0
   27.0928   11.1374   16.7245 C   0  0  1  0  0  0
   27.1324   12.2104   16.5278 H   0  0  0  0  0  0
   25.8590   10.8714   17.6225 C   0  0  0  0  0  0
   25.4112   11.8150   17.9353 H   0  0  0  0  0  0
   25.0855   10.3441   17.0626 H   0  0  0  0  0  0
   26.1853   10.1005   18.8244 N   0  0  2  0  0  0
   27.0764    9.6113   18.7919 H   0  0  0  0  0  0
   24.9719    9.2915   19.7374 S   0  0  0  0  0  0
   25.5924    8.9242   21.0181 O   0  0  0  0  0  0
   23.7609   10.1244   19.7158 O   0  0  0  0  0  0
   24.6388    7.7414   18.7894 C   0  0  0  0  0  0
   23.9878    7.9819   17.9480 H   0  0  0  0  0  0
   25.5857    7.3890   18.3782 H   0  0  0  0  0  0
   24.0180    6.6801   19.7211 C   0  0  0  0  0  0
   24.6238    6.5917   20.6237 H   0  0  0  0  0  0
   23.0282    6.9919   20.0587 H   0  0  0  0  0  0
   23.9849    5.3305   19.1168 N   0  3  0  0  0  0
   24.6079    5.2929   18.3232 H   0  0  0  0  0  0
   22.6414    4.8701   18.7249 C   0  0  0  0  0  0
   22.6853    3.8588   18.3177 H   0  0  0  0  0  0
   22.2023    5.5270   17.9747 H   0  0  0  0  0  0
   21.9849    4.8552   19.5947 H   0  0  0  0  0  0
   28.4632   10.6801   17.2790 C   0  0  0  0  0  0
   28.6908   11.2040   18.2079 H   0  0  0  0  0  0
   28.4445    9.6151   17.5109 H   0  0  0  0  0  0
   29.5727   10.9364   16.2549 C   0  0  0  0  0  0
   29.7064   12.0140   16.1439 H   0  0  0  0  0  0
   30.5223   10.5541   16.6259 H   0  0  0  0  0  0
   29.2119   10.3320   14.8821 C   0  0  1  0  0  0
   29.9134   10.7527   14.1598 H   0  0  0  0  0  0
   31.8434    8.6760   14.4516 C   0  0  0  0  0  0
   31.7359    9.3184   13.5900 H   0  0  0  0  0  0
   33.1218    8.2241   14.8254 C   0  0  0  0  0  0
   33.9850    8.5255   14.2529 H   0  0  0  0  0  0
   24.3474    4.6960   19.8319 H   0  0  0  0  0  0
  1  2  1  0  0  0
  2 60  1  0  0  0
  2  3  2  0  0  0
  3  4  1  0  0  0
  3  5  1  0  0  0
  5  6  1  0  0  0
  5  7  2  0  0  0
  7  8  1  0  0  0
  7 58  1  0  0  0
  8 56  1  0  0  0
  8  9  1  0  0  0
  8 10  1  0  0  0
 10 11  1  0  0  0
 10 12  1  0  0  0
 12 24  1  0  0  0
 12 13  2  0  0  0
 13 14  1  0  0  0
 13 15  1  0  0  0
 15 16  1  0  0  0
 15 17  2  0  0  0
 17 18  1  0  0  0
 17 22  1  0  0  0
 18 19  1  0  0  0
 18 20  1  0  0  0
 18 21  1  0  0  0
 22 23  1  0  0  0
 22 24  2  0  0  0
 24 25  1  0  0  0
 25 56  1  0  0  0
 25 26  1  0  0  0
 25 27  1  0  0  0
 27 28  1  0  0  0
 28 29  1  0  0  0
 28 30  1  0  0  0
 28 50  1  0  0  0
 30 31  1  0  0  0
 30 32  1  0  0  0
 30 33  1  0  0  0
 33 34  1  0  0  0
 33 35  1  0  0  0
 35 36  2  0  0  0
 35 37  2  0  0  0
 35 38  1  0  0  0
 38 39  1  0  0  0
 38 40  1  0  0  0
 38 41  1  0  0  0
 41 42  1  0  0  0
 41 43  1  0  0  0
 41 44  1  0  0  0
 44 45  1  0  0  0
 44 46  1  0  0  0
 44 62  1  0  0  0
 46 47  1  0  0  0
 46 48  1  0  0  0
 46 49  1  0  0  0
 50 51  1  0  0  0
 50 52  1  0  0  0
 50 53  1  0  0  0
 53 54  1  0  0  0
 53 55  1  0  0  0
 53 56  1  0  0  0
 56 57  1  0  0  0
 58 59  1  0  0  0
 58 60  2  0  0  0
 60 61  1  0  0  0
M  CHG  1  44   1
M  END
> <s_m_source_file>
ligprep_eg5.smi

> <i_m_source_file_index>
14

> <i_lp_mmshare_version>
53161

> <i_f3d_flags>
0

> <s_epik_input>
W2NIXTFbY0hdW2NIXVtjSF1bY0hdYzFbQ0BIXShbTkhdMilbQ0BASF0oW0NASF0zYyhjMjQpW2NIXWMoQyhGKShGKUYpW2NIXVtjSF00KVtDSDJdW0NIMl1bQ0BASF0oTzMpW0NIMl1bTkhdUyg9TykoPU8pW0NIMl1bQ0gyXVtOSF1bQ0gzXQ==

> <s_epik_cmdline>
J2VwaWtfcHl0aG9uJywgJy1waHQnLCAnMC4wJywgJy1waCcsICc3LjQnLCAnLXRuJywgJzgnLCAnLW1hJywgJzUwMCcsICctaW1hZScsICc8aW5maWxlLm1hZT4nLCAnLW9tYWUnLCAnPG91dGZpbGUubWFlPic=

> <r_lp_tautomer_probability>
1

> <r_epik_Ionization_Penalty>
  0.0112

> <r_epik_Ionization_Penalty_Charging>
  0.0108

> <r_epik_Ionization_Penalty_Neutral>
  0.0003

> <r_epik_State_Penalty>
 -0.0000

> <r_epik_Charging_Adjusted_Penalty>
0.0108481

> <i_epik_Tot_Q>
1

> <i_epik_Tot_abs_Q>
1

> <s_lp_Force_Field>
S-OPLS

> <r_lp_Energy>
31.394

> <b_lp_Chiralities_Consistent>
1

> <s_lp_Variant>
lig_CHEMBL1084677-1

> <s_i_glide_gridfile>
glide-grid_EG5-3L9H

> <i_i_glide_lignum>
14

> <i_i_glide_rotatable_bonds>
8

> <r_i_docking_score>
-9.52685998914813

> <r_i_glide_ligand_efficiency>
-0.288692726943883

> <r_i_glide_ligand_efficiency_sa>
-0.925991831413369

> <r_i_glide_ligand_efficiency_ln>
-2.11872433414547

> <r_i_glide_gscore>
-9.52685998914813

> <r_i_glide_lipo>
-4.55621898545261

> <r_i_glide_hbond>
-0.332915304848589

> <r_i_glide_metal>
-0

> <r_i_glide_rewards>
-1.18169917993037

> <r_i_glide_evdw>
-51.0294227600098

> <r_i_glide_ecoul>
-10.0400190353394

> <r_i_glide_erotb>
0.605472246693747

> <r_i_glide_esite>
-0.00402477230891625

> <r_i_glide_emodel>
-102.064413920816

> <r_i_glide_energy>
-61.0694417953491

> <r_i_glide_einternal>
6.86161708831787

> <i_i_glide_confnum>
32

> <i_i_glide_posenum>
272

> <r_i_glide_eff_state_penalty>
-0

> <r_i_glide_rmsd>
0.0708102401621492

> <s_glide_core_constrain_type>
snapped_core_restrain

$$$$
